Version 4
SHEET 1 880 680
WIRE 272 224 208 224
WIRE 384 224 272 224
WIRE 576 224 480 224
WIRE 640 224 576 224
WIRE 208 320 208 224
WIRE 464 320 464 272
WIRE 480 320 464 320
WIRE 576 320 576 224
WIRE 576 320 544 320
WIRE 464 384 464 320
WIRE 208 432 208 400
WIRE 464 528 464 464
FLAG 640 224 out
FLAG 272 224 in
FLAG 464 528 0
FLAG 208 432 0
SYMBOL pmos 384 272 R270
SYMATTR InstName M1
SYMATTR Value ZXM62P02E6
SYMBOL Res 448 368 R0
SYMATTR InstName R1
SYMATTR Value 1k
SYMBOL zener 480 336 R270
WINDOW 0 36 32 VTop 2
WINDOW 3 -4 32 VBottom 2
SYMATTR InstName D1
SYMATTR Value 1N750
SYMBOL Voltage 208 304 R0
SYMATTR InstName V1
SYMATTR Value SINE(0 20 1)
TEXT -48 512 Left 2 !.tran 6
TEXT 320 16 Left 2 ;Proteccion de polaridad
