Version 4
SHEET 1 1432 768
WIRE 672 192 528 192
WIRE 1216 192 1120 192
WIRE 176 208 96 208
WIRE 400 208 272 208
WIRE 1056 208 944 208
WIRE 1152 224 1120 224
WIRE 96 272 96 208
WIRE 1216 272 1216 192
WIRE 256 304 256 256
WIRE 336 304 256 304
WIRE 400 304 400 208
WIRE 528 304 528 192
WIRE 528 304 400 304
WIRE 256 336 256 304
WIRE 256 336 240 336
WIRE 672 336 672 192
WIRE 1152 336 1152 224
WIRE 1216 336 1152 336
WIRE 1216 352 1216 336
WIRE 96 400 96 352
WIRE 624 416 448 416
WIRE 768 432 672 432
WIRE 672 448 672 432
WIRE 768 480 768 432
WIRE 784 480 768 480
WIRE 832 480 784 480
WIRE 848 480 832 480
WIRE 944 480 944 208
WIRE 944 480 896 480
WIRE 1216 480 1216 416
WIRE 1216 480 1136 480
WIRE 240 528 240 416
WIRE 1136 528 1136 480
WIRE 448 544 448 416
WIRE 672 544 672 528
WIRE 672 544 448 544
WIRE 672 560 672 544
FLAG 240 528 0
FLAG 96 400 0
FLAG 96 208 1
FLAG 400 208 2
FLAG 784 480 3
FLAG 1216 272 0
FLAG 1136 528 0
FLAG 1152 224 4
FLAG 672 560 0
SYMBOL res 224 320 R0
SYMATTR InstName R1
SYMATTR Value 1k
SYMBOL pmos 176 256 R270
SYMATTR InstName M1
SYMBOL zener 336 320 R270
WINDOW 0 36 32 VTop 2
WINDOW 3 -4 32 VBottom 2
SYMATTR InstName D1
SYMBOL Diode 832 496 R270
WINDOW 0 32 32 VTop 2
WINDOW 3 0 32 VBottom 2
SYMATTR InstName D4
SYMBOL Voltage 96 256 R0
SYMATTR InstName V1
SYMATTR Value SINE(0 20 1)
SYMBOL Cap 1200 352 R0
SYMATTR InstName C2
SYMATTR Value 10µ
SYMBOL AutoGenerated/78L05 1088 208 R0
SYMATTR InstName U1
SYMBOL pmos 624 336 R0
SYMATTR InstName M2
SYMBOL Res 656 432 R0
SYMATTR InstName R2
SYMATTR Value 100
TEXT 968 96 Left 2 !.tran 0 10 0 1
